#---------------------------------------------------------------------------
#  CTI file converted from solution object
#---------------------------------------------------------------------------

units(length = "cm", time = "s", quantity = "mol", act_energy = "cal/mol")

ideal_gas(name = "reduced_108", 
     elements = "H O N C", 
     species = """ H H2 O O2 OH H2O N2 HO2 H2O2 CO CO2 CH2O HCO HOCHO
                   CH2OH CH3O CH4 CH3 CH2 CH2(S) CH
                   C2H6 C2H5 C2H4 C2H3 C2H2 C2H CH3CHO
                   CH3CO CH2CHO CH2CO HCCO CH3COCH3
                   CH3COCH2 C2H3CHO IC3H7 C3H6 C3H5-A
                   C3H5-S C3H5-T C3H4-P C3H4-A C3H3
                   C3H2 C4H8-1 C4H8-2 PC4H9 SC4H9
                   C4H71-3 C4H6 IC4H9 TC4H9 IC4H8 IC4H7
                   IC3H7CHO TC3H6CHO IC3H7CO IC3H5CHO
                   IC3H5CO IC3H6CO TC3H6OH BC5H11
                   AC5H10 BC5H10 CC5H10 AC5H9-A2
                   AC5H9-C AC5H9-D CC5H9-A CC5H9-B
                   CH3CHCHO BC6H12 CC6H12 DC6H12
                   CC6H11-B DC6H11-C C5H10-1 C5H10-2
                   C5H92-4 C5H11-2 IC4H7-I1 C5H81-3
                   YC7H15 XC7H14 YC7H14 XC7H13-Z
                   YC7H13-Y2 YC7H13-X2 ACC6H10 ACC6H9-A
                   ACC6H9-D NEOC5H11 TC4H9CO NC7H15
                   PC7H15 OC7H14 PC7H14 IC8H18 CC8H17
                   DC8H17 JC8H16 IC8H15 IC8ETERAA
                   IC8ETERAB IC8ETERBD IC8ETERDD
                   IC3H6CHCOCH3 IC3H6CHCOCH2 """, 
     reactions = "all", 
     initial_state = state(temperature = 300.0, pressure = 101325.00000000003)   )

#---------------------------------------------------------------------------
#  Species data
#---------------------------------------------------------------------------

species(name = "H",
    atoms = "H:1", 
    thermo = (
       NASA(   [300.0, 1000.0], [2.500000000e+00, 0.000000000e+00,
                0.000000000e+00, 0.000000000e+00,
                0.000000000e+00, 2.547163000e+04,
                -4.601176000e-01]  ),
       NASA(   [1000.0, 5000.0], [2.500000000e+00, 0.000000000e+00,
                0.000000000e+00, 0.000000000e+00,
                0.000000000e+00, 2.547163000e+04,
                -4.601176000e-01]  )
                ),
       )

species(name = "H2",
    atoms = "H:2", 
    thermo = (
       NASA(   [300.0, 1000.0], [3.298124000e+00, 8.249442000e-04,
                -8.143015000e-07,
                -9.475434000e-11, 4.134872000e-13,
                -1.012521000e+03,
                -3.294094000e+00]  ),
       NASA(   [1000.0, 5000.0], [2.991423000e+00, 7.000644000e-04,
                -5.633829000e-08,
                -9.231578000e-12, 1.582752000e-15,
                -8.350340000e+02,
                -1.355110000e+00]  )
                ),
       )

species(name = "O",
    atoms = "O:1", 
    thermo = (
       NASA(   [300.0, 1000.0], [2.946429000e+00, -1.638166000e-03,
                2.421032000e-06, -1.602843000e-09,
                3.890696000e-13, 2.914764000e+04,
                2.963995000e+00]  ),
       NASA(   [1000.0, 5000.0], [2.542060000e+00, -2.755062000e-05,
                -3.102803000e-09, 4.551067000e-12,
                -4.368052000e-16, 2.923080000e+04,
                4.920308000e+00]  )
                ),
       )

species(name = "O2",
    atoms = "O:2", 
    thermo = (
       NASA(   [300.0, 1000.0], [3.212936000e+00, 1.127486000e-03,
                -5.756150000e-07, 1.313877000e-09,
                -8.768554000e-13,
                -1.005249000e+03, 6.034738000e+00]  ),
       NASA(   [1000.0, 5000.0], [3.697578000e+00, 6.135197000e-04,
                -1.258842000e-07, 1.775281000e-11,
                -1.136435000e-15,
                -1.233930000e+03, 3.189166000e+00]  )
                ),
       )

species(name = "OH",
    atoms = "H:1, O:1", 
    thermo = (
       NASA(   [300.0, 1710.0], [3.418962260e+00, 3.192558010e-04,
                -3.082927170e-07, 3.644074940e-10,
                -1.001954790e-13, 3.452644480e+03,
                2.544333720e+00]  ),
       NASA(   [1710.0, 5000.0], [2.853760400e+00, 1.029943340e-03,
                -2.326664770e-07, 1.937507040e-11,
                -3.157598470e-16, 3.699497200e+03,
                5.787568250e+00]  )
                ),
       )

species(name = "H2O",
    atoms = "H:2, O:1", 
    thermo = (
       NASA(   [300.0, 1000.0], [3.386842000e+00, 3.474982000e-03,
                -6.354696000e-06, 6.968581000e-09,
                -2.506588000e-12,
                -3.020811000e+04, 2.590233000e+00]  ),
       NASA(   [1000.0, 5000.0], [2.672146000e+00, 3.056293000e-03,
                -8.730260000e-07, 1.200996000e-10,
                -6.391618000e-15,
                -2.989921000e+04, 6.862817000e+00]  )
                ),
       )

species(name = "N2",
    atoms = "N:2", 
    thermo = (
       NASA(   [300.0, 1000.0], [3.298677000e+00, 1.408240000e-03,
                -3.963222000e-06, 5.641515000e-09,
                -2.444855000e-12,
                -1.020900000e+03, 3.950372000e+00]  ),
       NASA(   [1000.0, 5000.0], [2.926640000e+00, 1.487977000e-03,
                -5.684761000e-07, 1.009704000e-10,
                -6.753351000e-15,
                -9.227977000e+02, 5.980528000e+00]  )
                ),
       )

species(name = "HO2",
    atoms = "H:1, O:2", 
    thermo = (
       NASA(   [200.0, 1000.0], [4.301798010e+00, -4.749120510e-03,
                2.115828910e-05, -2.427638940e-08,
                9.292251240e-12, 2.948080400e+02,
                3.716662450e+00]  ),
       NASA(   [1000.0, 3500.0], [4.017210900e+00, 2.239820130e-03,
                -6.336581500e-07, 1.142463700e-10,
                -1.079085350e-14, 1.118567130e+02,
                3.785102150e+00]  )
                ),
       )

species(name = "H2O2",
    atoms = "H:2, O:2", 
    thermo = (
       NASA(   [300.0, 1000.0], [3.388754000e+00, 6.569226000e-03,
                -1.485013000e-07,
                -4.625806000e-09, 2.471515000e-12,
                -1.766315000e+04, 6.785363000e+00]  ),
       NASA(   [1000.0, 5000.0], [4.573167000e+00, 4.336136000e-03,
                -1.474689000e-06, 2.348904000e-10,
                -1.431654000e-14,
                -1.800696000e+04, 5.011370000e-01]  )
                ),
       )

species(name = "CO",
    atoms = "C:1, O:1", 
    thermo = (
       NASA(   [300.0, 1429.0], [3.190363520e+00, 8.944199720e-04,
                -3.249275630e-08,
                -1.045999670e-10, 2.419656930e-14,
                -1.428690540e+04, 5.332779140e+00]  ),
       NASA(   [1429.0, 5000.0], [3.112168900e+00, 1.159482830e-03,
                -3.384803620e-07, 4.414030980e-11,
                -2.128622280e-15,
                -1.427185390e+04, 5.717251770e+00]  )
                ),
       )

species(name = "CO2",
    atoms = "C:1, O:2", 
    thermo = (
       NASA(   [300.0, 1380.0], [2.579304900e+00, 8.246849870e-03,
                -6.427160470e-06, 2.546370240e-09,
                -4.120304430e-13,
                -4.841628300e+04, 8.811410410e+00]  ),
       NASA(   [1380.0, 5000.0], [5.189530180e+00, 2.060064760e-03,
                -7.335753240e-07, 1.170043740e-10,
                -6.917292150e-15,
                -4.931789530e+04,
                -5.182893030e+00]  )
                ),
       )

species(name = "CH2O",
    atoms = "C:1, H:2, O:1", 
    thermo = (
       NASA(   [300.0, 1486.0], [3.007541970e+00, 3.047294960e-03,
                5.251092460e-06, -5.120192810e-09,
                1.271337950e-12, -1.411883970e+04,
                8.101202330e+00]  ),
       NASA(   [1486.0, 5000.0], [4.020683940e+00, 5.099034170e-03,
                -1.764304800e-06, 2.760258790e-10,
                -1.609980420e-14,
                -1.492872580e+04, 1.065255470e+00]  )
                ),
       )

species(name = "HCO",
    atoms = "C:1, H:1, O:1", 
    thermo = (
       NASA(   [300.0, 1690.0], [3.810499650e+00, 8.132698250e-04,
                3.131647010e-06, -2.394782680e-09,
                5.068945540e-13, 4.038599010e+03,
                4.948431650e+00]  ),
       NASA(   [1690.0, 5000.0], [3.441481640e+00, 3.521577190e-03,
                -1.241361180e-06, 1.973286440e-10,
                -1.165386160e-14, 3.974096840e+03,
                6.245934560e+00]  )
                ),
       )

species(name = "HOCHO",
    atoms = "C:1, H:2, O:2", 
    thermo = (
       NASA(   [300.0, 1419.0], [1.280690210e+00, 1.528877580e-02,
                -5.641504760e-06,
                -1.229687990e-09, 8.142732330e-13,
                -4.643475240e+04, 1.831420810e+01]  ),
       NASA(   [1419.0, 5000.0], [7.671344400e+00, 4.434263730e-03,
                -1.608674360e-06, 2.597700200e-10,
                -1.548997040e-14,
                -4.897086600e+04,
                -1.730244180e+01]  )
                ),
       )

species(name = "CH2OH",
    atoms = "C:1, H:3, O:1", 
    thermo = (
       NASA(   [300.0, 1399.0], [3.056742280e+00, 1.193356340e-02,
                -8.725013030e-06, 3.827810540e-09,
                -7.228879510e-13,
                -2.831401900e+03, 8.988781330e+00]  ),
       NASA(   [1399.0, 5000.0], [5.418759130e+00, 5.661852440e-03,
                -1.874711360e-06, 2.844419380e-10,
                -1.622997980e-14,
                -3.614755400e+03,
                -3.492779630e+00]  )
                ),
       )

species(name = "CH3O",
    atoms = "C:1, H:3, O:1", 
    thermo = (
       NASA(   [300.0, 1509.0], [2.230580230e+00, 8.531785860e-03,
                1.021666240e-06, -3.410469160e-09,
                9.946910380e-13, 9.459397080e+02,
                1.283775690e+01]  ),
       NASA(   [1509.0, 5000.0], [4.647870190e+00, 6.908306830e-03,
                -2.344047760e-06, 3.619945700e-10,
                -2.092535410e-14,
                -2.992088810e+02,
                -1.577401930e+00]  )
                ),
       )

species(name = "CH4",
    atoms = "C:1, H:4", 
    thermo = (
       NASA(   [300.0, 1462.0], [3.721130200e+00, -2.502932890e-03,
                1.902465340e-05, -1.468712530e-08,
                3.437911520e-12, -1.014240990e+04,
                1.227765960e+00]  ),
       NASA(   [1462.0, 5000.0], [4.096176530e+00, 7.443308450e-03,
                -2.638719000e-06, 4.195776040e-10,
                -2.475080500e-14,
                -1.138357040e+04,
                -4.675613830e+00]  )
                ),
       )

species(name = "CH3",
    atoms = "C:1, H:3", 
    thermo = (
       NASA(   [300.0, 1389.0], [3.438581620e+00, 4.077526640e-03,
                3.198309940e-07, -9.476693900e-10,
                2.218281660e-13, 1.631640180e+04,
                2.528074060e+00]  ),
       NASA(   [1389.0, 5000.0], [3.512813760e+00, 5.114126130e-03,
                -1.676320500e-06, 2.524951740e-10,
                -1.433029230e-14, 1.612380270e+04,
                1.624361120e+00]  )
                ),
       )

species(name = "CH2",
    atoms = "C:1, H:2", 
    thermo = (
       NASA(   [250.0, 1000.0], [3.762237000e+00, 1.159819000e-03,
                2.489585000e-07, 8.800836000e-10,
                -7.332435000e-13, 4.536791000e+04,
                1.712578000e+00]  ),
       NASA(   [1000.0, 4000.0], [3.636408000e+00, 1.933057000e-03,
                -1.687016000e-07,
                -1.009899000e-10, 1.808256000e-14,
                4.534134000e+04, 2.156561000e+00]  )
                ),
       )

species(name = "CH2(S)",
    atoms = "C:1, H:2", 
    thermo = (
       NASA(   [300.0, 1000.0], [3.971265000e+00, -1.699089000e-04,
                1.025369000e-06, 2.492551000e-09,
                -1.981266000e-12, 4.989368000e+04,
                5.753207000e-02]  ),
       NASA(   [1000.0, 4000.0], [3.552889000e+00, 2.066788000e-03,
                -1.914116000e-07,
                -1.104673000e-10, 2.021350000e-14,
                4.984975000e+04, 1.686570000e+00]  )
                ),
       )

species(name = "CH",
    atoms = "C:1, H:1", 
    thermo = (
       NASA(   [300.0, 1000.0], [3.200202000e+00, 2.072876000e-03,
                -5.134431000e-06, 5.733890000e-09,
                -1.955533000e-12, 7.045259000e+04,
                3.331588000e+00]  ),
       NASA(   [1000.0, 5000.0], [2.196223000e+00, 2.340381000e-03,
                -7.058201000e-07, 9.007582000e-11,
                -3.855040000e-15, 7.086723000e+04,
                9.178373000e+00]  )
                ),
       )

species(name = "C2H6",
    atoms = "C:2, H:6", 
    thermo = (
       NASA(   [300.0, 1383.0], [4.786232030e-02, 2.405691270e-02,
                -1.151559120e-05, 2.486662380e-09,
                -1.783439440e-13,
                -1.109230140e+04, 2.065440710e+01]  ),
       NASA(   [1383.0, 5000.0], [6.059726300e+00, 1.303828370e-02,
                -4.481039420e-06, 6.977620950e-10,
                -4.056063530e-14,
                -1.357512260e+04,
                -1.286080010e+01]  )
                ),
       )

species(name = "C2H5",
    atoms = "C:2, H:5", 
    thermo = (
       NASA(   [300.0, 1387.0], [1.327302170e+00, 1.766567530e-02,
                -6.149265580e-06,
                -3.011434660e-10, 4.386177750e-13,
                1.342840280e+04, 1.717892160e+01]  ),
       NASA(   [1387.0, 5000.0], [5.887843900e+00, 1.030767930e-02,
                -3.468443960e-06, 5.324992570e-10,
                -3.065126510e-14, 1.150654990e+04,
                -8.496517710e+00]  )
                ),
       )

species(name = "C2H4",
    atoms = "C:2, H:4", 
    thermo = (
       NASA(   [300.0, 1395.0], [2.338796870e-01, 1.963346470e-02,
                -1.168332140e-05, 3.642464530e-09,
                -4.774427150e-13, 5.464893380e+03,
                1.970842280e+01]  ),
       NASA(   [1395.0, 5000.0], [5.221763720e+00, 8.961373030e-03,
                -3.048688860e-06, 4.714655240e-10,
                -2.727395920e-14, 3.603896790e+03,
                -7.477892340e+00]  )
                ),
       )

species(name = "C2H3",
    atoms = "C:2, H:3", 
    thermo = (
       NASA(   [300.0, 1395.0], [1.253297240e+00, 1.562583700e-02,
                -1.078038790e-05, 4.180546340e-09,
                -7.013603620e-13, 3.507347730e+04,
                1.713416610e+01]  ),
       NASA(   [1395.0, 5000.0], [5.073312480e+00, 6.583162780e-03,
                -2.237629240e-06, 3.458033790e-10,
                -1.999404900e-14, 3.372347480e+04,
                -3.397927120e+00]  )
                ),
       )

species(name = "C2H2",
    atoms = "C:2, H:2", 
    thermo = (
       NASA(   [300.0, 1407.0], [2.067426670e+00, 1.465685060e-02,
                -1.529470630e-05, 8.309657610e-09,
                -1.729321750e-12, 2.595785890e+04,
                8.627586720e+00]  ),
       NASA(   [1407.0, 5000.0], [4.982651640e+00, 4.259929300e-03,
                -1.374835230e-06, 2.047179640e-10,
                -1.151917400e-14, 2.526971180e+04,
                -5.813213850e+00]  )
                ),
       )

species(name = "C2H",
    atoms = "C:2, H:1", 
    thermo = (
       NASA(   [300.0, 1361.0], [4.277083500e+00, 1.741300760e-03,
                7.311802060e-07, -9.718279010e-10,
                2.369567270e-13, 6.631259550e+04,
                3.163419160e-01]  ),
       NASA(   [1361.0, 5000.0], [4.668938220e+00, 2.012847200e-03,
                -7.018286340e-07, 1.103472280e-10,
                -6.457904650e-15, 6.603106960e+04,
                -2.254246930e+00]  )
                ),
       )

species(name = "CH3CHO",
    atoms = "C:2, H:4, O:1", 
    thermo = (
       NASA(   [300.0, 1377.0], [1.770600350e+00, 1.844751610e-02,
                -7.241381620e-06, 2.343645610e-10,
                3.355438910e-13, -2.180788500e+04,
                1.650234370e+01]  ),
       NASA(   [1377.0, 5000.0], [6.985188660e+00, 9.678977870e-03,
                -3.318419540e-06, 5.160259010e-10,
                -2.997259030e-14,
                -2.398072790e+04,
                -1.274848520e+01]  )
                ),
       )

species(name = "CH3CO",
    atoms = "C:2, H:3, O:1", 
    thermo = (
       NASA(   [300.0, 1371.0], [2.528841500e+00, 1.371521730e-02,
                -4.286074760e-06,
                -7.716842780e-10, 4.838363800e-13,
                -3.025465320e+03, 1.403403150e+01]  ),
       NASA(   [1371.0, 5000.0], [6.566824660e+00, 7.553086690e-03,
                -2.599667840e-06, 4.053349940e-10,
                -2.358761640e-14,
                -4.766904010e+03,
                -8.833019650e+00]  )
                ),
       )

species(name = "CH2CHO",
    atoms = "C:2, H:3, O:1", 
    thermo = (
       NASA(   [300.0, 1388.0], [1.476169560e+00, 2.089741860e-02,
                -1.501235520e-05, 5.629673820e-09,
                -8.766244700e-13,
                -4.820505100e+02, 1.637564650e+01]  ),
       NASA(   [1388.0, 5000.0], [7.541457900e+00, 6.822971250e-03,
                -2.369386070e-06, 3.716335170e-10,
                -2.171600480e-14,
                -2.614372390e+03,
                -1.626027660e+01]  )
                ),
       )

species(name = "CH2CO",
    atoms = "C:2, H:2, O:1", 
    thermo = (
       NASA(   [300.0, 1000.0], [2.974971000e+00, 1.211871000e-02,
                -2.345046000e-06,
                -6.466685000e-09, 3.905649000e-12,
                -7.632637000e+03, 8.673553000e+00]  ),
       NASA(   [1000.0, 5000.0], [6.038817000e+00, 5.804840000e-03,
                -1.920954000e-06, 2.794485000e-10,
                -1.458868000e-14,
                -8.583402000e+03,
                -7.657581000e+00]  )
                ),
       )

species(name = "HCCO",
    atoms = "C:2, H:1, O:1", 
    thermo = (
       NASA(   [300.0, 1000.0], [5.047965000e+00, 4.453478000e-03,
                2.268283000e-07, -1.482095000e-09,
                2.250742000e-13, 1.965892000e+04,
                4.818439000e-01]  ),
       NASA(   [1000.0, 4000.0], [6.758073000e+00, 2.000400000e-03,
                -2.027607000e-07,
                -1.041132000e-10, 1.965165000e-14,
                1.901513000e+04, -9.071262000e+00]  )
                ),
       )

species(name = "CH3COCH3",
    atoms = "C:3, H:6, O:1", 
    thermo = (
       NASA(   [300.0, 1382.0], [1.245274080e+00, 2.997602550e-02,
                -1.400266610e-05, 2.164535120e-09,
                1.276372950e-13, -2.783487270e+04,
                2.036826150e+01]  ),
       NASA(   [1382.0, 5000.0], [9.626743790e+00, 1.455192450e-02,
                -4.977494570e-06, 7.727945910e-10,
                -4.483671650e-14,
                -3.118622630e+04,
                -2.616134490e+01]  )
                ),
       )

species(name = "CH3COCH2",
    atoms = "C:3, H:5, O:1", 
    thermo = (
       NASA(   [300.0, 1388.0], [1.223372510e+00, 3.245467420e-02,
                -2.135425180e-05, 6.967777350e-09,
                -8.991602990e-13,
                -6.594193240e+03, 2.055372330e+01]  ),
       NASA(   [1388.0, 5000.0], [1.088924770e+01, 1.115406750e-02,
                -3.855167850e-06, 6.028340480e-10,
                -3.515334490e-14,
                -1.007414640e+04,
                -3.180433220e+01]  )
                ),
       )

species(name = "C2H3CHO",
    atoms = "C:3, H:4, O:1", 
    thermo = (
       NASA(   [300.0, 1393.0], [2.923551620e-01, 3.543214170e-02,
                -2.949363240e-05, 1.281001240e-08,
                -2.261441080e-12,
                -1.165215840e+04, 2.288782800e+01]  ),
       NASA(   [1393.0, 5000.0], [1.041849590e+01, 9.489633210e-03,
                -3.293105290e-06, 5.162792030e-10,
                -3.015872910e-14,
                -1.496302810e+04,
                -3.072350610e+01]  )
                ),
       )

species(name = "IC3H7",
    atoms = "C:3, H:7", 
    thermo = (
       NASA(   [300.0, 1373.0], [1.634175890e+00, 2.401713720e-02,
                -4.728080670e-06,
                -3.243546030e-09, 1.235390440e-12,
                9.207528890e+03, 1.838480820e+01]  ),
       NASA(   [1373.0, 5000.0], [8.147052170e+00, 1.587271060e-02,
                -5.446115410e-06, 8.472076890e-10,
                -4.921787520e-14, 6.180733670e+03,
                -1.919808500e+01]  )
                ),
       )

species(name = "C3H6",
    atoms = "C:3, H:6", 
    thermo = (
       NASA(   [300.0, 1388.0], [3.946154440e-01, 2.891076620e-02,
                -1.548868080e-05, 3.888142090e-09,
                -3.378903520e-13, 1.177601320e+03,
                2.190037360e+01]  ),
       NASA(   [1388.0, 5000.0], [8.015959580e+00, 1.370236340e-02,
                -4.662497330e-06, 7.212544020e-10,
                -4.173701260e-14,
                -1.767493030e+03,
                -2.001606680e+01]  )
                ),
       )

species(name = "C3H5-A",
    atoms = "C:3, H:5", 
    thermo = (
       NASA(   [300.0, 1397.0], [-5.291319580e-01, 3.345591000e-02,
                -2.534010270e-05, 1.028657540e-08,
                -1.732583400e-12, 1.949414230e+04,
                2.461723150e+01]  ),
       NASA(   [1397.0, 5000.0], [8.458839580e+00, 1.126954830e-02,
                -3.837928640e-06, 5.940591190e-10,
                -3.439180300e-14, 1.646832890e+04,
                -2.327042660e+01]  )
                ),
       )

species(name = "C3H5-S",
    atoms = "C:3, H:5", 
    thermo = (
       NASA(   [300.0, 1390.0], [1.328073350e+00, 2.531079140e-02,
                -1.515304390e-05, 4.743455650e-09,
                -6.246660840e-13, 3.079811000e+04,
                1.833287870e+01]  ),
       NASA(   [1390.0, 5000.0], [7.887658790e+00, 1.130125910e-02,
                -3.842131300e-06, 5.939826770e-10,
                -3.435671750e-14, 2.834849130e+04,
                -1.742915890e+01]  )
                ),
       )

species(name = "C3H5-T",
    atoms = "C:3, H:5", 
    thermo = (
       NASA(   [300.0, 1382.0], [2.179166440e+00, 2.038266230e-02,
                -7.914138340e-06, 4.769061870e-10,
                2.703985360e-13, 2.960025350e+04,
                1.487856840e+01]  ),
       NASA(   [1382.0, 5000.0], [7.374924430e+00, 1.175100610e-02,
                -4.000212830e-06, 6.189473950e-10,
                -3.582150180e-14, 2.739821080e+04,
                -1.434786550e+01]  )
                ),
       )

species(name = "C3H4-P",
    atoms = "C:3, H:4", 
    thermo = (
       NASA(   [300.0, 1400.0], [3.029730000e+00, 1.498961000e-02,
                -1.398500000e-06,
                -3.969619000e-09, 1.388217000e-12,
                2.148408000e+04, 8.004594000e+00]  ),
       NASA(   [1400.0, 4000.0], [9.768102000e+00, 5.219151000e-03,
                -3.753140000e-07,
                -2.992191000e-10, 5.107878000e-14,
                1.860277000e+04, -3.020678000e+01]  )
                ),
       )

species(name = "C3H4-A",
    atoms = "C:3, H:4", 
    thermo = (
       NASA(   [300.0, 1400.0], [2.539831000e+00, 1.633437000e-02,
                -1.764950000e-06,
                -4.647365000e-09, 1.729131000e-12,
                2.251243000e+04, 9.935702000e+00]  ),
       NASA(   [1400.0, 4000.0], [9.776256000e+00, 5.302138000e-03,
                -3.701118000e-07,
                -3.026386000e-10, 5.089581000e-14,
                1.954972000e+04, -3.077061000e+01]  )
                ),
       )

species(name = "C3H3",
    atoms = "C:3, H:3", 
    thermo = (
       NASA(   [300.0, 1000.0], [4.754200000e+00, 1.108028000e-02,
                2.793323000e-07, -5.479212000e-09,
                1.949629000e-12, 3.988883000e+04,
                5.854549000e-01]  ),
       NASA(   [1000.0, 4000.0], [8.831047000e+00, 4.357195000e-03,
                -4.109067000e-07,
                -2.368723000e-10, 4.376520000e-14,
                3.847420000e+04, -2.177919000e+01]  )
                ),
       )

species(name = "C3H2",
    atoms = "C:3, H:2", 
    thermo = (
       NASA(   [150.0, 1000.0], [3.166714000e+00, 2.482572000e-02,
                -4.591637000e-05, 4.268019000e-08,
                -1.482152000e-11, 6.350421000e+04,
                8.869446000e+00]  ),
       NASA(   [1000.0, 4000.0], [7.670981000e+00, 2.748749000e-03,
                -4.370943000e-07,
                -6.455599000e-11, 1.663887000e-14,
                6.259722000e+04, -1.236890000e+01]  )
                ),
       )

species(name = "C4H8-1",
    atoms = "C:4, H:8", 
    thermo = (
       NASA(   [300.0, 1391.0], [-8.333771330e-01, 4.541411230e-02,
                -2.976090300e-05, 1.035183540e-08,
                -1.519757330e-12,
                -1.491618110e+03, 2.943279050e+01]  ),
       NASA(   [1391.0, 5000.0], [1.134565740e+01, 1.808434280e-02,
                -6.172765140e-06, 9.569258150e-10,
                -5.545862120e-14,
                -5.886594500e+03,
                -3.646272060e+01]  )
                ),
       )

species(name = "C4H8-2",
    atoms = "C:4, H:8", 
    thermo = (
       NASA(   [300.0, 1384.0], [6.692135990e-01, 3.768399410e-02,
                -1.856896830e-05, 3.695710620e-09,
                -1.030952090e-13,
                -3.116754020e+03, 2.148681690e+01]  ),
       NASA(   [1384.0, 5000.0], [1.078643760e+01, 1.846291940e-02,
                -6.282894900e-06, 9.720521910e-10,
                -5.625791660e-14,
                -7.116497820e+03,
                -3.448927630e+01]  )
                ),
       )

species(name = "PC4H9",
    atoms = "C:4, H:9", 
    thermo = (
       NASA(   [300.0, 1391.0], [3.207309330e-01, 4.346544540e-02,
                -2.405849700e-05, 6.282453080e-09,
                -5.801131660e-13, 7.714908930e+03,
                2.573010850e+01]  ),
       NASA(   [1391.0, 5000.0], [1.207797440e+01, 1.962647780e-02,
                -6.713021990e-06, 1.042064240e-09,
                -6.044692820e-14, 3.225504730e+03,
                -3.877193840e+01]  )
                ),
       )

species(name = "SC4H9",
    atoms = "C:4, H:9", 
    thermo = (
       NASA(   [300.0, 1381.0], [8.491599860e-01, 3.820853200e-02,
                -1.496267970e-05, 2.044992110e-10,
                8.242544370e-13, 6.388329560e+03,
                2.444666060e+01]  ),
       NASA(   [1381.0, 5000.0], [1.169343040e+01, 1.964022870e-02,
                -6.653065170e-06, 1.026318950e-09,
                -5.928262940e-14, 1.963824290e+03,
                -3.616266720e+01]  )
                ),
       )

species(name = "C4H71-3",
    atoms = "C:4, H:7", 
    thermo = (
       NASA(   [300.0, 1392.0], [-1.124751120e+00, 4.348828540e-02,
                -2.877504540e-05, 9.880469710e-09,
                -1.401203410e-12, 1.544201600e+04,
                2.976511560e+01]  ),
       NASA(   [1392.0, 5000.0], [1.094701700e+01, 1.637243870e-02,
                -5.598962000e-06, 8.691476930e-10,
                -5.042143890e-14, 1.111817410e+04,
                -3.549084000e+01]  )
                ),
       )

species(name = "C4H6",
    atoms = "C:4, H:6", 
    thermo = (
       NASA(   [300.0, 1398.0], [-1.430951210e+00, 4.787060620e-02,
                -4.154468000e-05, 1.915495520e-08,
                -3.571585070e-12, 1.175513140e+04,
                2.908258330e+01]  ),
       NASA(   [1398.0, 5000.0], [1.116337890e+01, 1.371639650e-02,
                -4.697157830e-06, 7.296938360e-10,
                -4.234862030e-14, 7.790397700e+03,
                -3.698479490e+01]  )
                ),
       )

species(name = "IC4H9",
    atoms = "C:4, H:9", 
    thermo = (
       NASA(   [300.0, 1386.0], [-2.214578350e-01, 4.637563240e-02,
                -2.882829200e-05, 9.602006460e-09,
                -1.390210340e-12, 6.761536370e+03,
                2.648012200e+01]  ),
       NASA(   [1386.0, 5000.0], [1.212769300e+01, 1.986894940e-02,
                -6.859370040e-06, 1.071415280e-09,
                -6.241846090e-14, 2.119520510e+03,
                -4.087272780e+01]  )
                ),
       )

species(name = "TC4H9",
    atoms = "C:4, H:9", 
    thermo = (
       NASA(   [300.0, 1372.0], [3.043001810e+00, 2.912762590e-02,
                -4.013867860e-06,
                -4.902739740e-09, 1.640148910e-12,
                4.047809800e+03, 1.211273510e+01]  ),
       NASA(   [1372.0, 5000.0], [1.058550830e+01, 2.118920550e-02,
                -7.316683600e-06, 1.142961730e-09,
                -6.658988350e-14, 3.183111890e+02,
                -3.206712580e+01]  )
                ),
       )

species(name = "IC4H8",
    atoms = "C:4, H:8", 
    thermo = (
       NASA(   [300.0, 1388.0], [9.384331730e-01, 3.905472870e-02,
                -2.164371480e-05, 5.872670770e-09,
                -6.144354790e-13,
                -3.954520130e+03, 1.983378020e+01]  ),
       NASA(   [1388.0, 5000.0], [1.122583300e+01, 1.817957980e-02,
                -6.203485920e-06, 9.614444580e-10,
                -5.570880570e-14,
                -7.906178990e+03,
                -3.664118880e+01]  )
                ),
       )

species(name = "IC4H7",
    atoms = "C:4, H:7", 
    thermo = (
       NASA(   [300.0, 1393.0], [-7.208816970e-04, 4.364957300e-02,
                -3.163858770e-05, 1.239849830e-08,
                -2.043783600e-12, 1.436543730e+04,
                2.332343400e+01]  ),
       NASA(   [1393.0, 5000.0], [1.163827530e+01, 1.576812990e-02,
                -5.385388580e-06, 8.351729270e-10,
                -4.841410830e-14, 1.034082300e+04,
                -3.902598900e+01]  )
                ),
       )

species(name = "IC3H7CHO",
    atoms = "C:4, H:8, O:1", 
    thermo = (
       NASA(   [300.0, 1391.0], [-2.730213820e-01, 4.896963070e-02,
                -3.127700490e-05, 1.000529450e-08,
                -1.275120740e-12,
                -2.760547370e+04, 2.834511390e+01]  ),
       NASA(   [1391.0, 5000.0], [1.375016560e+01, 1.831267220e-02,
                -6.285726290e-06, 9.782507560e-10,
                -5.685386530e-14,
                -3.269367710e+04,
                -4.772705480e+01]  )
                ),
       )

species(name = "TC3H6CHO",